Version 4
SHEET 1 880 680
WIRE -160 16 -464 16
WIRE -64 16 -80 16
WIRE -560 96 -576 96
WIRE -464 96 -464 16
WIRE -464 96 -480 96
WIRE -432 96 -464 96
WIRE -336 96 -368 96
WIRE -192 96 -336 96
WIRE 16 112 -128 112
WIRE -192 128 -240 128
WIRE -336 144 -336 96
WIRE -464 160 -464 96
WIRE -240 192 -240 128
WIRE -160 192 -240 192
WIRE -64 192 -64 16
WIRE -64 192 -80 192
WIRE -240 240 -240 192
WIRE -464 272 -464 224
WIRE -336 272 -336 224
WIRE -1104 288 -1104 256
WIRE -240 368 -240 320
WIRE -1152 400 -1152 352
WIRE -1104 400 -1104 368
WIRE -1104 400 -1152 400
WIRE -1152 432 -1152 400
FLAG -240 368 0
FLAG -336 272 0
FLAG -464 272 0
FLAG 16 112 Vout
FLAG -160 80 Vss
FLAG -1152 432 0
FLAG 112 528 0
FLAG 112 448 Vcc
FLAG 304 528 0
FLAG 304 448 Vss
FLAG -384 512 0
FLAG -384 432 in
FLAG -576 96 in
FLAG -1152 304 in
FLAG -1104 256 Vout1
FLAG -160 144 Vcc
SYMBOL cap -368 80 R90
WINDOW 0 0 32 VBottom 2
WINDOW 3 32 32 VTop 2
SYMATTR InstName C2
SYMATTR Value {c2}
SYMBOL res -176 208 R270
WINDOW 0 32 56 VTop 2
WINDOW 3 0 56 VBottom 2
SYMATTR InstName r21
SYMATTR Value {r21}
SYMBOL res -256 224 R0
SYMATTR InstName r12
SYMATTR Value {r12}
SYMBOL res -176 32 R270
WINDOW 0 32 56 VTop 2
WINDOW 3 0 56 VBottom 2
SYMATTR InstName R22
SYMATTR Value {r2}
SYMBOL res -352 128 R0
SYMATTR InstName R3
SYMATTR Value {r3}
SYMBOL cap -480 160 R0
SYMATTR InstName C1
SYMATTR Value {c1}
SYMBOL res -576 112 R270
WINDOW 0 32 56 VTop 2
WINDOW 3 0 56 VBottom 2
SYMATTR InstName R11
SYMATTR Value {r11}
SYMBOL voltage 112 432 R0
WINDOW 123 0 0 Left 0
WINDOW 39 0 0 Left 0
SYMATTR InstName V2
SYMATTR Value 2
SYMBOL voltage 304 544 R180
WINDOW 123 0 0 Left 0
WINDOW 39 0 0 Left 0
SYMATTR InstName V3
SYMATTR Value 2
SYMBOL voltage -384 416 R0
WINDOW 123 24 124 Left 2
WINDOW 39 0 0 Left 0
SYMATTR Value2 AC 1
SYMATTR InstName V4
SYMATTR Value SINE(0 1 1e6 0)
SYMBOL e -1104 272 R0
SYMATTR InstName E1
SYMATTR Value Laplace = (s*k1) / (s**2+a1*s+ b1 )
SYMBOL TL072 528 144 M180
SYMATTR InstName U2
SYMBOL OpAmps\\opamp2 -160 176 M180
SYMATTR InstName U1
TEXT -1328 552 Left 2 !.ac dec 10000 1 100000
TEXT -1184 152 Left 2 !.param k1=5252.26 a1=3184.42 b1=66320656
TEXT -600 -56 Left 2 !.param r11=1736 r2=1736 r3=1736 r21=2440 r12=1000 c1=100e-9 c2=100e-9
