Version 4
SHEET 1 1160 680
WIRE 192 0 128 0
WIRE 336 0 272 0
WIRE 416 0 336 0
WIRE 528 0 496 0
WIRE 336 16 336 0
WIRE 128 80 128 0
WIRE 208 80 128 80
WIRE 336 80 272 80
WIRE 528 80 528 0
WIRE 576 80 528 80
WIRE 704 80 656 80
WIRE 48 112 48 80
WIRE 128 144 128 80
WIRE 192 144 128 144
WIRE 528 144 528 80
WIRE 576 144 528 144
WIRE 336 160 336 80
WIRE 336 160 256 160
WIRE 704 160 704 80
WIRE 704 160 640 160
WIRE 128 176 48 176
WIRE 192 176 128 176
WIRE 576 176 528 176
WIRE 128 224 128 176
WIRE 528 224 528 176
WIRE 528 224 128 224
FLAG 48 112 0
FLAG 48 256 0
FLAG 912 112 0
FLAG 1008 112 0
FLAG 912 32 Vcc
FLAG 608 128 Vcc
FLAG 224 128 Vcc
FLAG 1008 32 Vee
FLAG 608 192 Vee
FLAG 224 192 Vee
SYMBOL OpAmps\\opamp2 224 96 R0
WINDOW 3 16 96 Left 0
WINDOW 0 16 32 Left 0
SYMATTR Value LMX24_LM2902
SYMATTR InstName U1
SYMBOL OpAmps\\opamp2 608 96 R0
WINDOW 3 16 96 Left 0
SYMATTR Value LMX24_LM2902
SYMATTR InstName U2
SYMBOL diode 320 16 R0
WINDOW 3 30 33 Left 0
SYMATTR InstName D1
SYMATTR Value 1N4148
SYMBOL diode 272 96 M270
WINDOW 0 32 32 VTop 2
WINDOW 3 34 -5 VBottom 0
SYMATTR InstName D2
SYMATTR Value 1N914
SYMBOL res 288 -16 R90
WINDOW 0 0 56 VBottom 2
WINDOW 3 32 56 VTop 2
SYMATTR InstName R1
SYMATTR Value 10k
SYMBOL res 512 -16 R90
WINDOW 0 0 56 VBottom 2
WINDOW 3 32 56 VTop 2
SYMATTR InstName R2
SYMATTR Value 5k
SYMBOL res 144 64 R90
WINDOW 0 0 56 VBottom 2
WINDOW 3 32 56 VTop 2
SYMATTR InstName R3
SYMATTR Value 10k
SYMBOL res 672 64 R90
WINDOW 0 -4 83 VBottom 2
WINDOW 3 -30 37 VTop 2
SYMATTR InstName R4
SYMATTR Value 10k
SYMBOL voltage 912 16 R0
SYMATTR InstName Vcc
SYMATTR Value 10
SYMBOL voltage 1008 16 R0
SYMATTR InstName Vee
SYMATTR Value -10
SYMBOL voltage 48 160 R0
WINDOW 0 -65 16 Left 1
WINDOW 3 -62 92 Left 2
WINDOW 123 0 0 Left 0
WINDOW 39 0 0 Left 0
SYMATTR InstName Vin
SYMATTR Value SINE(0 1 1k 0)
TEXT -248 -96 Left 2 !.include C:\\Users\\Usuario\\Desktop\\SintesisDeRedesActivasGit\\Laboratorio N°1\\sglm009c\\lmx24_lm2902.lib
TEXT -248 280 Left 2 !.tran 0 0.1 0 0.01
